
#======================================================================
# CRYSTAL DATA
#----------------------------------------------------------------------
data_VESTA_phase_1

_chemical_name_common                  'Pb Te'
_cell_length_a                         6.454000
_cell_length_b                         6.454000
_cell_length_c                         6.454000
_cell_angle_alpha                      90.000000
_cell_angle_beta                       90.000000
_cell_angle_gamma                      90.000000
_cell_volume                           268.835664
_space_group_name_H-M_alt              'P 1'
_space_group_IT_number                 1

loop_
_space_group_symop_operation_xyz
   'x, y, z'

loop_
   _atom_site_label
   _atom_site_occupancy
   _atom_site_fract_x
   _atom_site_fract_y
   _atom_site_fract_z
   _atom_site_type_symbol
   Pb1        1.0     0.000000     0.000000     0.000000  Pb
   Pb1        1.0     0.000000     0.500000     0.500000  Pb
   Pb1        1.0     0.500000     0.000000     0.500000  Pb
   Pb1        1.0     0.500000     0.500000     0.000000  Pb
   Te1        1.0     0.500000     0.500000     0.500000  Te
   Te2        1.0     0.500000     0.000000     0.000000  Te
   Te3        1.0     0.000000     0.500000     0.000000  Te
   Te4        1.0     0.000000     0.000000     0.500000  Te
